*SOILS: AgroclimR DSSAT Soil Input File - by https://github.com/jrodriguez88/agroclimR

*SOILS: AgroclimR DSSAT Soil Input File - by https://github.com/jrodriguez88/agroclimR

*TEST000001  AgroclimRV1   LO      60  AgroClimR TEST
@SITE        COUNTRY          LAT     LONG SCS FAMILY
 TEST        AgroclimR         -99    -99 USDA Texture: Lo
@ SCOM  SALB  SLU1  SLDR  SLRO  SLNF  SLPF  SMHB  SMPX  SMKE
   -99  0.13     6   0.6    80  1.00  1.00 IB001 IB001 IB001
@  SLB  SLMH  SLLL  SDUL  SSAT  SRGF  SSKS  SBDM  SLOC  SLCL  SLSI  SLCF  SLNI  SLHW  SLHB  SCEC  SADC
    20   -99 0.080 0.150 0.464 0.810  2.87  1.45  0.67   9.0  40.7   1.5   0.7   5.2   -99   5.3   -99
    40   -99 0.123 0.169 0.446 0.640  6.27  1.49  0.15  11.6   8.8   1.5   0.3   6.5   -99   7.9   -99
    60   -99 0.068 0.135 0.397 0.490  4.17  1.59  0.14  13.3   8.8   1.5   0.2   6.3   -99   5.0   -99
