*SOILS: AgroclimR DSSAT Soil Input File - by https://github.com/jrodriguez88/agroclimR

*test_soil000001  AgroclimRV1   LO     -99  AgroClimR test_soil
@SITE        COUNTRY          LAT     LONG SCS FAMILY
 test_soil   AgroclimR         -99    -99 USDA Texture: Lo
@ SCOM  SALB  SLU1  SLDR  SLRO  SLNF  SLPF  SMHB  SMPX  SMKE
   -99  0.13     6   0.6    65  1.00  1.00 IB001 IB001 IB001
@  SLB  SLMH  SLLL  SDUL  SSAT  SRGF  SSKS  SBDM  SLOC  SLCL  SLSI  SLCF  SLNI  SLHW  SLHB  SCEC  SADC
   -99   -99   -99   -99   -99 0.810 40.10  1.53   -99   -99   -99   -99   -99   -99   -99  12.1   -99
   -99   -99   -99   -99   -99 0.810 32.55  1.71   -99   -99   -99   -99   -99   -99   -99  14.0   -99
   -99   -99   -99   -99   -99 0.810 27.91  1.66   -99   -99   -99   -99   -99   -99   -99  12.7   -99
   -99   -99   -99   -99   -99 0.810 94.18  1.40   -99   -99   -99   -99   -99   -99   -99   7.9   -99
   -99   -99   -99   -99   -99 0.810 98.00  1.49   -99   -99   -99   -99   -99   -99   -99   7.9   -99
   -99   -99   -99   -99   -99 0.810 77.61  1.46   -99   -99   -99   -99   -99   -99   -99   7.9   -99
   -99   -99   -99   -99   -99 0.810 28.68  1.79   -99   -99   -99   -99   -99   -99   -99   6.6   -99
   -99   -99   -99   -99   -99 0.810 30.67  1.76   -99   -99   -99   -99   -99   -99   -99   6.7   -99
   -99   -99   -99   -99   -99 0.810 83.82  1.59   -99   -99   -99   -99   -99   -99   -99   5.0   -99
   -99   -99   -99   -99   -99 0.810 21.86  1.56   -99   -99   -99   -99   -99   -99   -99   9.6   -99
   -99   -99   -99   -99   -99 0.810 29.34  1.69   -99   -99   -99   -99   -99   -99   -99   9.7   -99
   -99   -99   -99   -99   -99 0.810 24.73  1.70   -99   -99   -99   -99   -99   -99   -99  14.0   -99
   -99   -99   -99   -99   -99 0.810 24.35  1.59   -99   -99   -99   -99   -99   -99   -99  11.8   -99
   -99   -99   -99   -99   -99 0.810 21.94  1.80   -99   -99   -99   -99   -99   -99   -99   5.5   -99
   -99   -99   -99   -99   -99 0.810 86.24  1.54   -99   -99   -99   -99   -99   -99   -99   2.6   -99
   -99   -99   -99   -99   -99 0.810 47.75  1.45   -99   -99   -99   -99   -99   -99   -99   5.3   -99
   -99   -99   -99   -99   -99 0.810 93.32  1.53   -99   -99   -99   -99   -99   -99   -99   1.8   -99
   -99   -99   -99   -99   -99 0.810 87.66  1.47   -99   -99   -99   -99   -99   -99   -99   1.7   -99
