*SOILS: AgroclimR DSSAT Soil Input File - by https://github.com/jrodriguez88/agroclimR

*test_soil000001  AgroclimRV1   SI      60  AgroClimR test_soil
@SITE        COUNTRY          LAT     LONG SCS FAMILY
 test_soil   AgroclimR         -99    -99 USDA Texture: SiLo
@ SCOM  SALB  SLU1  SLDR  SLRO  SLNF  SLPF  SMHB  SMPX  SMKE
   -99  0.13     6   0.6    85  1.00  1.00 IB001 IB001 IB001
@  SLB  SLMH  SLLL  SDUL  SSAT  SRGF  SSKS  SBDM  SLOC  SLCL  SLSI  SLCF  SLNI  SLHW  SLHB  SCEC  SADC
    20   -99 0.285 0.400 0.525 0.810  0.84  1.59  0.52  15.7  56.0   1.5   2.1   6.1   -99  11.8   -99
    40   -99 0.245 0.305 0.356 0.640  1.02  1.69  0.65  14.5  37.9   1.5   0.6   6.7   -99   9.7   -99
    60   -99 0.096 0.178 0.403 0.490  4.74  1.54  0.04  15.6   3.0   1.5   0.5   6.9   -99   2.6   -99
